Version 4
SHEET 1 880 680
WIRE 384 -32 320 -32
WIRE 208 96 64 96
WIRE 320 96 320 -32
WIRE 320 96 288 96
WIRE 64 144 64 96
WIRE 320 160 320 96
WIRE 352 160 320 160
WIRE 352 192 320 192
WIRE 384 240 384 208
WIRE 496 240 384 240
WIRE 64 256 64 224
WIRE 208 256 64 256
WIRE 320 256 320 192
WIRE 320 256 288 256
WIRE 416 256 320 256
WIRE 416 320 416 256
WIRE 496 400 496 240
FLAG 48 -176 5
FLAG 48 -96 0
FLAG 416 400 0
FLAG 400 144 5
FLAG 496 400 0
SYMBOL voltage 64 128 R0
SYMATTR InstName V1
SYMBOL res 304 80 R90
WINDOW 0 0 56 VBottom 2
WINDOW 3 32 56 VTop 2
SYMATTR InstName R1
SYMBOL res 304 240 R90
WINDOW 0 0 56 VBottom 2
WINDOW 3 32 56 VTop 2
SYMATTR InstName R2
SYMBOL res 432 416 R180
WINDOW 0 36 76 Left 2
WINDOW 3 36 40 Left 2
SYMATTR InstName R3
SYMBOL res 368 -16 R270
WINDOW 0 32 56 VTop 2
WINDOW 3 0 56 VBottom 2
SYMATTR InstName R4
SYMBOL Opamps\\LM108A 384 112 R0
SYMATTR InstName U1
SYMBOL voltage 48 -192 R0
SYMATTR InstName V2
