Version 4
SHEET 1 880 680
WIRE 64 128 -16 128
WIRE 208 128 144 128
WIRE -16 176 -16 128
WIRE 208 192 208 128
WIRE -16 336 -16 256
WIRE 208 336 208 256
WIRE 208 336 -16 336
WIRE -16 352 -16 336
FLAG -16 352 0
FLAG 208 128 Vreg
SYMBOL zener 224 256 R180
WINDOW 0 24 64 Left 2
WINDOW 3 24 0 Left 2
SYMATTR InstName D1
SYMATTR Value PDZ3.0B
SYMATTR Prefix X
SYMBOL voltage -16 160 R0
WINDOW 123 0 0 Left 0
WINDOW 39 0 0 Left 0
SYMATTR InstName V1
SYMATTR Value 5
SYMBOL res 160 112 R90
WINDOW 0 0 56 VBottom 2
WINDOW 3 32 56 VTop 2
SYMATTR InstName R1
SYMATTR Value {Rvar}
TEXT 352 232 Left 2 !.lib PDZ3_0B.prm
TEXT 352 256 Left 2 !.step param Rvar list 1k 10k 100k
TEXT -48 376 Left 2 !.tran 0 0.1m 0m 100n startup
